Version 4
SHEET 1 880 680
WIRE 144 64 48 64
WIRE 336 64 224 64
WIRE 448 64 336 64
WIRE -256 80 -256 64
WIRE -256 80 -272 80
WIRE -256 96 -256 80
WIRE 336 96 336 64
WIRE 448 96 448 64
WIRE 48 112 48 64
WIRE 48 224 48 192
WIRE 336 224 336 176
WIRE 336 224 48 224
WIRE 448 224 448 160
WIRE 448 224 336 224
WIRE 48 240 48 224
FLAG -256 176 Vee
FLAG -256 -16 Vcc
FLAG -272 80 0
FLAG 48 240 0
SYMBOL voltage 48 96 R0
WINDOW 3 -348 170 Left 2
WINDOW 123 0 0 Left 2
WINDOW 39 0 0 Left 2
SYMATTR InstName V1
SYMATTR Value PULSE({-Vbatt/2+0.4} {Vbatt/2-0.4} 0 1u 1u {1/(2*freq)} {1/freq})
SYMBOL res 240 48 R90
WINDOW 0 0 56 VBottom 2
WINDOW 3 32 56 VTop 2
SYMATTR InstName R1
SYMATTR Value 10k
SYMBOL res 320 80 R0
SYMATTR InstName R2
SYMBOL cap 432 96 R0
SYMATTR InstName C1
SYMBOL voltage -256 -32 R0
WINDOW 123 0 0 Left 2
WINDOW 39 0 0 Left 2
SYMATTR InstName V2
SYMATTR Value {Vbatt/2}
SYMBOL voltage -256 80 R0
WINDOW 123 0 0 Left 2
WINDOW 39 0 0 Left 2
SYMATTR InstName V3
SYMATTR Value {Vbatt/2}
TEXT 88 -112 Left 2 !.param freq=10k
TEXT 88 -80 Left 2 !.param Vbatt=2.5
